electric-grid/physical/synthetic/synAustinTD/models/syn-austin-D_only-v03/P4U/base/opendss/Master.dss
Clear

New Circuit.Full_Network bus1=st_mat pu=1.0 basekV=230.0 R1=0.00001 X1=0.00001 R0=0.00001 X0=0.00001

Redirect p4uhs3_1247/Transformers.dss
Redirect p4uhs3_1247/p4uhs3_1247--p4udt16430/Transformers.dss
Redirect p4uhs3_1247/p4uhs3_1247--p4udt17537/Transformers.dss
Redirect p4uhs3_1247/p4uhs3_1247--p4udt17903/Transformers.dss
Redirect p4uhs3_1247/p4uhs3_1247--p4udt13996/Transformers.dss
Redirect p4uhs3_1247/p4uhs3_1247--p4udt2390/Transformers.dss
Redirect p4uhs4_1247/Transformers.dss
Redirect p4uhs4_1247/p4uhs4_1247--p4udt17398/Transformers.dss
Redirect p4uhs4_1247/p4uhs4_1247--p4udt19484/Transformers.dss
Redirect p4uhs4_1247/p4uhs4_1247--p4udt5981/Transformers.dss
Redirect p4uhs4_1247/p4uhs4_1247--p4udt8999/Transformers.dss
Redirect p4uhs5_1247/Transformers.dss
Redirect p4uhs5_1247/p4uhs5_1247--p4udt10630/Transformers.dss
Redirect p4uhs5_1247/p4uhs5_1247--p4udt15124/Transformers.dss
Redirect p4uhs5_1247/p4uhs5_1247--p4udt20411/Transformers.dss
Redirect p4uhs5_1247/p4uhs5_1247--p4udt3570/Transformers.dss
Redirect p4uhs6_1247/Transformers.dss
Redirect p4uhs6_1247/p4uhs6_1247--p4udt22626/Transformers.dss
Redirect p4uhs6_1247/p4uhs6_1247--p4udt18805/Transformers.dss
Redirect p4uhs6_1247/p4uhs6_1247--p4udt1281/Transformers.dss
Redirect p4uhs7_1247/Transformers.dss
Redirect p4uhs7_1247/p4uhs7_1247--p4udt5694/Transformers.dss
Redirect p4uhs7_1247/p4uhs7_1247--p4udt8751/Transformers.dss
Redirect p4uhs7_1247/p4uhs7_1247--p4udt22221/Transformers.dss
Redirect p4uhs7_1247/p4uhs7_1247--p4udt10974/Transformers.dss
Redirect p4uhs8_1247/Transformers.dss
Redirect p4uhs8_1247/p4uhs8_1247--p4udt1728/Transformers.dss
Redirect p4uhs8_1247/p4uhs8_1247--p4udt14683/Transformers.dss
Redirect p4uhs9_1247/Transformers.dss
Redirect p4uhs9_1247/p4uhs9_1247--p4udt20209/Transformers.dss
Redirect p4uhs9_1247/p4uhs9_1247--p4udt18371/Transformers.dss
Redirect p4uhs9_1247/p4uhs9_1247--p4udt6157/Transformers.dss
Redirect p4uhs9_1247/p4uhs9_1247--p4udt18569/Transformers.dss
Redirect p4uhs10_1247/Transformers.dss
Redirect p4uhs10_1247/p4uhs10_1247--p4udt21162/Transformers.dss
Redirect p4uhs10_1247/p4uhs10_1247--p4udt12947/Transformers.dss
Redirect p4uhs10_1247/p4uhs10_1247--p4udt14276/Transformers.dss
Redirect p4uhs10_1247/p4uhs10_1247--p4udt21933/Transformers.dss
Redirect p4uhs10_1247/p4uhs10_1247--p4udt11491/Transformers.dss
Redirect p4uhs11_1247/p4uhs11_1247--p4udt11208/Transformers.dss
Redirect p4uhs11_1247/Transformers.dss
Redirect p4uhs11_1247/p4uhs11_1247--p4udt10412/Transformers.dss
Redirect p4uhs11_1247/p4uhs11_1247--p4udt9291/Transformers.dss
Redirect p4uhs11_1247/p4uhs11_1247--p4udt20593/Transformers.dss
Redirect p4uhs12_1247/Transformers.dss
Redirect p4uhs12_1247/p4uhs12_1247--p4udt5377/Transformers.dss
Redirect p4uhs12_1247/p4uhs12_1247--p4udt20601/Transformers.dss
Redirect p4uhs12_1247/p4uhs12_1247--p4udt22081/Transformers.dss
Redirect p4uhs2_1247/Transformers.dss
Redirect p4uhs2_1247/p4uhs2_1247--p4udt19190/Transformers.dss
Redirect p4uhs2_1247/p4uhs2_1247--p4udt15941/Transformers.dss
Redirect p4uhs2_1247/p4uhs2_1247--p4udt19679/Transformers.dss
Redirect p4uhs2_1247/p4uhs2_1247--p4udt22231/Transformers.dss
Redirect p4uhs13_1247/p4uhs13_1247--p4udt23237/Transformers.dss
Redirect p4uhs13_1247/Transformers.dss
Redirect p4uhs13_1247/p4uhs13_1247--p4udt1395/Transformers.dss
Redirect p4uhs14_1247/Transformers.dss
Redirect p4uhs14_1247/p4uhs14_1247--p4udt9634/Transformers.dss
Redirect p4uhs14_1247/p4uhs14_1247--p4udt19383/Transformers.dss
Redirect p4uhs0_1247/Transformers.dss
Redirect p4uhs0_1247/p4uhs0_1247--p4udt18706/Transformers.dss
Redirect p4uhs0_1247/p4uhs0_1247--p4udt18708/Transformers.dss
Redirect p4uhs0_1247/p4uhs0_1247--p4udt7051/Transformers.dss
Redirect p4uhs0_1247/p4uhs0_1247--p4udt7046/Transformers.dss
Redirect p4uhs0_1247/p4uhs0_1247--p4udt19058/Transformers.dss
Redirect p4uhs15_1247/p4uhs15_1247--p4udt15003/Transformers.dss
Redirect p4uhs15_1247/Transformers.dss
Redirect p4uhs15_1247/p4uhs15_1247--p4udt20507/Transformers.dss
Redirect p4uhs15_1247/p4uhs15_1247--p4udt11307/Transformers.dss
Redirect p4uhs16_1247/Transformers.dss
Redirect p4uhs16_1247/p4uhs16_1247--p4udt20685/Transformers.dss
Redirect p4uhs16_1247/p4uhs16_1247--p4udt23451/Transformers.dss
Redirect p4uhs16_1247/p4uhs16_1247--p4udt17342/Transformers.dss
Redirect p4uhs16_1247/p4uhs16_1247--p4udt6223/Transformers.dss
Redirect p4uhs16_1247/p4uhs16_1247--p4udt2769/Transformers.dss
Redirect p4uhs17_1247/Transformers.dss
Redirect p4uhs17_1247/p4uhs17_1247--p4udt3392/Transformers.dss
Redirect p4uhs17_1247/p4uhs17_1247--p4udt7683/Transformers.dss
Redirect p4uhs17_1247/p4uhs17_1247--p4udt13269/Transformers.dss
Redirect p4uhs17_1247/p4uhs17_1247--p4udt4433/Transformers.dss
Redirect p4uhs17_1247/p4uhs17_1247--p4udt17331/Transformers.dss
Redirect p4uhs17_1247/p4uhs17_1247--p4udt13480/Transformers.dss
Redirect p4uhs18_1247/p4uhs18_1247--p4udt2248/Transformers.dss
Redirect p4uhs18_1247/Transformers.dss
Redirect p4uhs18_1247/p4uhs18_1247--p4udt2247/Transformers.dss
Redirect p4uhs18_1247/p4uhs18_1247--p4udt18560/Transformers.dss
Redirect p4uhs19_1247/Transformers.dss
Redirect p4uhs19_1247/p4uhs19_1247--p4udt4849/Transformers.dss
Redirect p4uhs19_1247/p4uhs19_1247--p4udt21543/Transformers.dss
Redirect p4uhs19_1247/p4uhs19_1247--p4udt10279/Transformers.dss
Redirect p4uhs19_1247/p4uhs19_1247--p4udt22137/Transformers.dss
Redirect p4uhs19_1247/p4uhs19_1247--p4udt18907/Transformers.dss
Redirect p4uhs20_1247/Transformers.dss
Redirect p4uhs20_1247/p4uhs20_1247--p4udt9759/Transformers.dss
Redirect p4uhs20_1247/p4uhs20_1247--p4udt7428/Transformers.dss
Redirect p4uhs20_1247/p4uhs20_1247--p4udt13530/Transformers.dss
Redirect p4uhs20_1247/p4uhs20_1247--p4udt8037/Transformers.dss
Redirect p4uhs20_1247/p4uhs20_1247--p4udt1954/Transformers.dss
Redirect p4uhs20_1247/p4uhs20_1247--p4udt19742/Transformers.dss
Redirect p4uhs1_1247/Transformers.dss
Redirect p4uhs1_1247/p4uhs1_1247--p4udt18595/Transformers.dss
Redirect p4uhs1_1247/p4uhs1_1247--p4udt5565/Transformers.dss
Redirect p4uhs1_1247/p4uhs1_1247--p4udt22748/Transformers.dss
Redirect p4uhs1_1247/p4uhs1_1247--p4udt18088/Transformers.dss
Redirect subtransmission/Transformers.dss
Redirect p4uhs3_1247/Regulators.dss
Redirect p4uhs0_1247/Regulators.dss
Redirect p4uhs4_1247/Regulators.dss
Redirect p4uhs6_1247/Regulators.dss
Redirect p4uhs5_1247/Regulators.dss
Redirect p4uhs7_1247/Regulators.dss
Redirect p4uhs8_1247/Regulators.dss
Redirect p4uhs9_1247/Regulators.dss
Redirect p4uhs10_1247/Regulators.dss
Redirect p4uhs11_1247/Regulators.dss
Redirect p4uhs12_1247/Regulators.dss
Redirect p4uhs2_1247/Regulators.dss
Redirect p4uhs13_1247/Regulators.dss
Redirect p4uhs14_1247/Regulators.dss
Redirect p4uhs15_1247/Regulators.dss
Redirect p4uhs17_1247/Regulators.dss
Redirect p4uhs18_1247/Regulators.dss
Redirect p4uhs19_1247/Regulators.dss
Redirect p4uhs20_1247/Regulators.dss
Redirect p4uhs1_1247/Regulators.dss
Redirect p4uhs16_1247/Regulators.dss
Redirect p4uhs3_1247/p4uhs3_1247--p4udt16430/Loads.dss
Redirect p4uhs3_1247/p4uhs3_1247--p4udt17537/Loads.dss
Redirect p4uhs3_1247/p4uhs3_1247--p4udt17903/Loads.dss
Redirect p4uhs3_1247/p4uhs3_1247--p4udt13996/Loads.dss
Redirect p4uhs3_1247/p4uhs3_1247--p4udt2390/Loads.dss
Redirect p4uhs4_1247/p4uhs4_1247--p4udt8999/Loads.dss
Redirect p4uhs4_1247/p4uhs4_1247--p4udt17398/Loads.dss
Redirect p4uhs4_1247/p4uhs4_1247--p4udt19484/Loads.dss
Redirect p4uhs4_1247/p4uhs4_1247--p4udt5981/Loads.dss
Redirect p4uhs5_1247/p4uhs5_1247--p4udt10630/Loads.dss
Redirect p4uhs5_1247/p4uhs5_1247--p4udt20411/Loads.dss
Redirect p4uhs5_1247/p4uhs5_1247--p4udt3570/Loads.dss
Redirect p4uhs5_1247/p4uhs5_1247--p4udt15124/Loads.dss
Redirect p4uhs6_1247/p4uhs6_1247--p4udt22626/Loads.dss
Redirect p4uhs6_1247/p4uhs6_1247--p4udt18805/Loads.dss
Redirect p4uhs6_1247/p4uhs6_1247--p4udt1281/Loads.dss
Redirect p4uhs7_1247/p4uhs7_1247--p4udt5694/Loads.dss
Redirect p4uhs7_1247/p4uhs7_1247--p4udt10974/Loads.dss
Redirect p4uhs7_1247/p4uhs7_1247--p4udt22221/Loads.dss
Redirect p4uhs7_1247/p4uhs7_1247--p4udt8751/Loads.dss
Redirect p4uhs8_1247/p4uhs8_1247--p4udt1728/Loads.dss
Redirect p4uhs8_1247/p4uhs8_1247--p4udt14683/Loads.dss
Redirect p4uhs9_1247/p4uhs9_1247--p4udt18569/Loads.dss
Redirect p4uhs9_1247/p4uhs9_1247--p4udt20209/Loads.dss
Redirect p4uhs9_1247/p4uhs9_1247--p4udt18371/Loads.dss
Redirect p4uhs9_1247/p4uhs9_1247--p4udt6157/Loads.dss
Redirect p4uhs10_1247/p4uhs10_1247--p4udt21162/Loads.dss
Redirect p4uhs10_1247/p4uhs10_1247--p4udt12947/Loads.dss
Redirect p4uhs10_1247/p4uhs10_1247--p4udt14276/Loads.dss
Redirect p4uhs10_1247/p4uhs10_1247--p4udt21933/Loads.dss
Redirect p4uhs10_1247/p4uhs10_1247--p4udt11491/Loads.dss
Redirect p4uhs11_1247/p4uhs11_1247--p4udt11208/Loads.dss
Redirect p4uhs11_1247/p4uhs11_1247--p4udt10412/Loads.dss
Redirect p4uhs11_1247/p4uhs11_1247--p4udt20593/Loads.dss
Redirect p4uhs11_1247/p4uhs11_1247--p4udt9291/Loads.dss
Redirect p4uhs12_1247/p4uhs12_1247--p4udt5377/Loads.dss
Redirect p4uhs12_1247/p4uhs12_1247--p4udt20601/Loads.dss
Redirect p4uhs12_1247/p4uhs12_1247--p4udt22081/Loads.dss
Redirect p4uhs2_1247/p4uhs2_1247--p4udt19190/Loads.dss
Redirect p4uhs2_1247/p4uhs2_1247--p4udt15941/Loads.dss
Redirect p4uhs2_1247/p4uhs2_1247--p4udt19679/Loads.dss
Redirect p4uhs2_1247/p4uhs2_1247--p4udt22231/Loads.dss
Redirect p4uhs13_1247/p4uhs13_1247--p4udt23237/Loads.dss
Redirect p4uhs13_1247/p4uhs13_1247--p4udt1395/Loads.dss
Redirect p4uhs14_1247/p4uhs14_1247--p4udt9634/Loads.dss
Redirect p4uhs14_1247/p4uhs14_1247--p4udt19383/Loads.dss
Redirect p4uhs0_1247/p4uhs0_1247--p4udt18706/Loads.dss
Redirect p4uhs0_1247/p4uhs0_1247--p4udt18708/Loads.dss
Redirect p4uhs0_1247/p4uhs0_1247--p4udt7051/Loads.dss
Redirect p4uhs0_1247/p4uhs0_1247--p4udt7046/Loads.dss
Redirect p4uhs0_1247/p4uhs0_1247--p4udt19058/Loads.dss
Redirect p4uhs15_1247/p4uhs15_1247--p4udt15003/Loads.dss
Redirect p4uhs15_1247/p4uhs15_1247--p4udt20507/Loads.dss
Redirect p4uhs15_1247/p4uhs15_1247--p4udt11307/Loads.dss
Redirect p4uhs16_1247/p4uhs16_1247--p4udt20685/Loads.dss
Redirect p4uhs16_1247/p4uhs16_1247--p4udt23451/Loads.dss
Redirect p4uhs16_1247/p4uhs16_1247--p4udt17342/Loads.dss
Redirect p4uhs16_1247/p4uhs16_1247--p4udt6223/Loads.dss
Redirect p4uhs16_1247/p4uhs16_1247--p4udt2769/Loads.dss
Redirect p4uhs17_1247/p4uhs17_1247--p4udt3392/Loads.dss
Redirect p4uhs17_1247/p4uhs17_1247--p4udt7683/Loads.dss
Redirect p4uhs17_1247/p4uhs17_1247--p4udt13269/Loads.dss
Redirect p4uhs17_1247/p4uhs17_1247--p4udt4433/Loads.dss
Redirect p4uhs17_1247/p4uhs17_1247--p4udt17331/Loads.dss
Redirect p4uhs17_1247/p4uhs17_1247--p4udt13480/Loads.dss
Redirect p4uhs18_1247/p4uhs18_1247--p4udt2248/Loads.dss
Redirect p4uhs18_1247/p4uhs18_1247--p4udt2247/Loads.dss
Redirect p4uhs18_1247/p4uhs18_1247--p4udt18560/Loads.dss
Redirect p4uhs19_1247/p4uhs19_1247--p4udt4849/Loads.dss
Redirect p4uhs19_1247/p4uhs19_1247--p4udt21543/Loads.dss
Redirect p4uhs19_1247/p4uhs19_1247--p4udt10279/Loads.dss
Redirect p4uhs19_1247/p4uhs19_1247--p4udt22137/Loads.dss
Redirect p4uhs19_1247/p4uhs19_1247--p4udt18907/Loads.dss
Redirect p4uhs20_1247/p4uhs20_1247--p4udt9759/Loads.dss
Redirect p4uhs20_1247/p4uhs20_1247--p4udt7428/Loads.dss
Redirect p4uhs20_1247/p4uhs20_1247--p4udt13530/Loads.dss
Redirect p4uhs20_1247/p4uhs20_1247--p4udt8037/Loads.dss
Redirect p4uhs20_1247/p4uhs20_1247--p4udt1954/Loads.dss
Redirect p4uhs20_1247/p4uhs20_1247--p4udt19742/Loads.dss
Redirect p4uhs1_1247/p4uhs1_1247--p4udt5565/Loads.dss
Redirect p4uhs1_1247/p4uhs1_1247--p4udt18088/Loads.dss
Redirect p4uhs1_1247/p4uhs1_1247--p4udt22748/Loads.dss
Redirect p4uhs1_1247/p4uhs1_1247--p4udt18595/Loads.dss
Redirect p4uhs3_1247/LineCodes.dss
Redirect p4uhs3_1247/p4uhs3_1247--p4udt16430/LineCodes.dss
Redirect p4uhs3_1247/p4uhs3_1247--p4udt17537/LineCodes.dss
Redirect p4uhs3_1247/p4uhs3_1247--p4udt17903/LineCodes.dss
Redirect p4uhs3_1247/p4uhs3_1247--p4udt13996/LineCodes.dss
Redirect p4uhs3_1247/p4uhs3_1247--p4udt2390/LineCodes.dss
Redirect p4uhs4_1247/LineCodes.dss
Redirect p4uhs4_1247/p4uhs4_1247--p4udt17398/LineCodes.dss
Redirect p4uhs4_1247/p4uhs4_1247--p4udt19484/LineCodes.dss
Redirect p4uhs4_1247/p4uhs4_1247--p4udt5981/LineCodes.dss
Redirect p4uhs4_1247/p4uhs4_1247--p4udt8999/LineCodes.dss
Redirect p4uhs5_1247/LineCodes.dss
Redirect p4uhs5_1247/p4uhs5_1247--p4udt10630/LineCodes.dss
Redirect p4uhs5_1247/p4uhs5_1247--p4udt15124/LineCodes.dss
Redirect p4uhs5_1247/p4uhs5_1247--p4udt20411/LineCodes.dss
Redirect p4uhs5_1247/p4uhs5_1247--p4udt3570/LineCodes.dss
Redirect p4uhs6_1247/LineCodes.dss
Redirect p4uhs6_1247/p4uhs6_1247--p4udt22626/LineCodes.dss
Redirect p4uhs6_1247/p4uhs6_1247--p4udt18805/LineCodes.dss
Redirect p4uhs6_1247/p4uhs6_1247--p4udt1281/LineCodes.dss
Redirect p4uhs7_1247/LineCodes.dss
Redirect p4uhs7_1247/p4uhs7_1247--p4udt5694/LineCodes.dss
Redirect p4uhs7_1247/p4uhs7_1247--p4udt8751/LineCodes.dss
Redirect p4uhs7_1247/p4uhs7_1247--p4udt22221/LineCodes.dss
Redirect p4uhs7_1247/p4uhs7_1247--p4udt10974/LineCodes.dss
Redirect p4uhs8_1247/LineCodes.dss
Redirect p4uhs8_1247/p4uhs8_1247--p4udt1728/LineCodes.dss
Redirect p4uhs8_1247/p4uhs8_1247--p4udt14683/LineCodes.dss
Redirect p4uhs9_1247/LineCodes.dss
Redirect p4uhs9_1247/p4uhs9_1247--p4udt20209/LineCodes.dss
Redirect p4uhs9_1247/p4uhs9_1247--p4udt18371/LineCodes.dss
Redirect p4uhs9_1247/p4uhs9_1247--p4udt6157/LineCodes.dss
Redirect p4uhs9_1247/p4uhs9_1247--p4udt18569/LineCodes.dss
Redirect p4uhs10_1247/LineCodes.dss
Redirect p4uhs10_1247/p4uhs10_1247--p4udt21162/LineCodes.dss
Redirect p4uhs10_1247/p4uhs10_1247--p4udt12947/LineCodes.dss
Redirect p4uhs10_1247/p4uhs10_1247--p4udt14276/LineCodes.dss
Redirect p4uhs10_1247/p4uhs10_1247--p4udt21933/LineCodes.dss
Redirect p4uhs10_1247/p4uhs10_1247--p4udt11491/LineCodes.dss
Redirect p4uhs11_1247/p4uhs11_1247--p4udt11208/LineCodes.dss
Redirect p4uhs11_1247/LineCodes.dss
Redirect p4uhs11_1247/p4uhs11_1247--p4udt10412/LineCodes.dss
Redirect p4uhs11_1247/p4uhs11_1247--p4udt9291/LineCodes.dss
Redirect p4uhs11_1247/p4uhs11_1247--p4udt20593/LineCodes.dss
Redirect p4uhs12_1247/LineCodes.dss
Redirect p4uhs12_1247/p4uhs12_1247--p4udt5377/LineCodes.dss
Redirect p4uhs12_1247/p4uhs12_1247--p4udt20601/LineCodes.dss
Redirect p4uhs12_1247/p4uhs12_1247--p4udt22081/LineCodes.dss
Redirect p4uhs2_1247/LineCodes.dss
Redirect p4uhs2_1247/p4uhs2_1247--p4udt19190/LineCodes.dss
Redirect p4uhs2_1247/p4uhs2_1247--p4udt15941/LineCodes.dss
Redirect p4uhs2_1247/p4uhs2_1247--p4udt19679/LineCodes.dss
Redirect p4uhs2_1247/p4uhs2_1247--p4udt22231/LineCodes.dss
Redirect p4uhs13_1247/p4uhs13_1247--p4udt23237/LineCodes.dss
Redirect p4uhs13_1247/LineCodes.dss
Redirect p4uhs13_1247/p4uhs13_1247--p4udt1395/LineCodes.dss
Redirect p4uhs14_1247/LineCodes.dss
Redirect p4uhs14_1247/p4uhs14_1247--p4udt9634/LineCodes.dss
Redirect p4uhs14_1247/p4uhs14_1247--p4udt19383/LineCodes.dss
Redirect p4uhs0_1247/LineCodes.dss
Redirect p4uhs0_1247/p4uhs0_1247--p4udt18706/LineCodes.dss
Redirect p4uhs0_1247/p4uhs0_1247--p4udt18708/LineCodes.dss
Redirect p4uhs0_1247/p4uhs0_1247--p4udt7051/LineCodes.dss
Redirect p4uhs0_1247/p4uhs0_1247--p4udt7046/LineCodes.dss
Redirect p4uhs0_1247/p4uhs0_1247--p4udt19058/LineCodes.dss
Redirect p4uhs15_1247/p4uhs15_1247--p4udt15003/LineCodes.dss
Redirect p4uhs15_1247/LineCodes.dss
Redirect p4uhs15_1247/p4uhs15_1247--p4udt20507/LineCodes.dss
Redirect p4uhs15_1247/p4uhs15_1247--p4udt11307/LineCodes.dss
Redirect p4uhs16_1247/LineCodes.dss
Redirect p4uhs16_1247/p4uhs16_1247--p4udt20685/LineCodes.dss
Redirect p4uhs16_1247/p4uhs16_1247--p4udt23451/LineCodes.dss
Redirect p4uhs16_1247/p4uhs16_1247--p4udt17342/LineCodes.dss
Redirect p4uhs16_1247/p4uhs16_1247--p4udt6223/LineCodes.dss
Redirect p4uhs16_1247/p4uhs16_1247--p4udt2769/LineCodes.dss
Redirect p4uhs17_1247/LineCodes.dss
Redirect p4uhs17_1247/p4uhs17_1247--p4udt3392/LineCodes.dss
Redirect p4uhs17_1247/p4uhs17_1247--p4udt7683/LineCodes.dss
Redirect p4uhs17_1247/p4uhs17_1247--p4udt13269/LineCodes.dss
Redirect p4uhs17_1247/p4uhs17_1247--p4udt4433/LineCodes.dss
Redirect p4uhs17_1247/p4uhs17_1247--p4udt17331/LineCodes.dss
Redirect p4uhs17_1247/p4uhs17_1247--p4udt13480/LineCodes.dss
Redirect p4uhs18_1247/p4uhs18_1247--p4udt2248/LineCodes.dss
Redirect p4uhs18_1247/LineCodes.dss
Redirect p4uhs18_1247/p4uhs18_1247--p4udt2247/LineCodes.dss
Redirect p4uhs18_1247/p4uhs18_1247--p4udt18560/LineCodes.dss
Redirect p4uhs19_1247/LineCodes.dss
Redirect p4uhs19_1247/p4uhs19_1247--p4udt4849/LineCodes.dss
Redirect p4uhs19_1247/p4uhs19_1247--p4udt21543/LineCodes.dss
Redirect p4uhs19_1247/p4uhs19_1247--p4udt10279/LineCodes.dss
Redirect p4uhs19_1247/p4uhs19_1247--p4udt22137/LineCodes.dss
Redirect p4uhs19_1247/p4uhs19_1247--p4udt18907/LineCodes.dss
Redirect p4uhs20_1247/LineCodes.dss
Redirect p4uhs20_1247/p4uhs20_1247--p4udt9759/LineCodes.dss
Redirect p4uhs20_1247/p4uhs20_1247--p4udt7428/LineCodes.dss
Redirect p4uhs20_1247/p4uhs20_1247--p4udt13530/LineCodes.dss
Redirect p4uhs20_1247/p4uhs20_1247--p4udt8037/LineCodes.dss
Redirect p4uhs20_1247/p4uhs20_1247--p4udt1954/LineCodes.dss
Redirect p4uhs20_1247/p4uhs20_1247--p4udt19742/LineCodes.dss
Redirect p4uhs1_1247/LineCodes.dss
Redirect p4uhs1_1247/p4uhs1_1247--p4udt18595/LineCodes.dss
Redirect p4uhs1_1247/p4uhs1_1247--p4udt5565/LineCodes.dss
Redirect p4uhs1_1247/p4uhs1_1247--p4udt22748/LineCodes.dss
Redirect p4uhs1_1247/p4uhs1_1247--p4udt18088/LineCodes.dss
Redirect subtransmission/LineCodes.dss
Redirect p4uhs3_1247/Lines.dss
Redirect p4uhs3_1247/p4uhs3_1247--p4udt16430/Lines.dss
Redirect p4uhs3_1247/p4uhs3_1247--p4udt17537/Lines.dss
Redirect p4uhs3_1247/p4uhs3_1247--p4udt17903/Lines.dss
Redirect p4uhs3_1247/p4uhs3_1247--p4udt13996/Lines.dss
Redirect p4uhs3_1247/p4uhs3_1247--p4udt2390/Lines.dss
Redirect p4uhs4_1247/Lines.dss
Redirect p4uhs4_1247/p4uhs4_1247--p4udt17398/Lines.dss
Redirect p4uhs4_1247/p4uhs4_1247--p4udt19484/Lines.dss
Redirect p4uhs4_1247/p4uhs4_1247--p4udt5981/Lines.dss
Redirect p4uhs4_1247/p4uhs4_1247--p4udt8999/Lines.dss
Redirect p4uhs5_1247/Lines.dss
Redirect p4uhs5_1247/p4uhs5_1247--p4udt10630/Lines.dss
Redirect p4uhs5_1247/p4uhs5_1247--p4udt15124/Lines.dss
Redirect p4uhs5_1247/p4uhs5_1247--p4udt20411/Lines.dss
Redirect p4uhs5_1247/p4uhs5_1247--p4udt3570/Lines.dss
Redirect p4uhs6_1247/Lines.dss
Redirect p4uhs6_1247/p4uhs6_1247--p4udt22626/Lines.dss
Redirect p4uhs6_1247/p4uhs6_1247--p4udt18805/Lines.dss
Redirect p4uhs6_1247/p4uhs6_1247--p4udt1281/Lines.dss
Redirect p4uhs7_1247/Lines.dss
Redirect p4uhs7_1247/p4uhs7_1247--p4udt5694/Lines.dss
Redirect p4uhs7_1247/p4uhs7_1247--p4udt8751/Lines.dss
Redirect p4uhs7_1247/p4uhs7_1247--p4udt22221/Lines.dss
Redirect p4uhs7_1247/p4uhs7_1247--p4udt10974/Lines.dss
Redirect p4uhs8_1247/Lines.dss
Redirect p4uhs8_1247/p4uhs8_1247--p4udt1728/Lines.dss
Redirect p4uhs8_1247/p4uhs8_1247--p4udt14683/Lines.dss
Redirect p4uhs9_1247/Lines.dss
Redirect p4uhs9_1247/p4uhs9_1247--p4udt20209/Lines.dss
Redirect p4uhs9_1247/p4uhs9_1247--p4udt18371/Lines.dss
Redirect p4uhs9_1247/p4uhs9_1247--p4udt6157/Lines.dss
Redirect p4uhs9_1247/p4uhs9_1247--p4udt18569/Lines.dss
Redirect p4uhs10_1247/Lines.dss
Redirect p4uhs10_1247/p4uhs10_1247--p4udt21162/Lines.dss
Redirect p4uhs10_1247/p4uhs10_1247--p4udt12947/Lines.dss
Redirect p4uhs10_1247/p4uhs10_1247--p4udt14276/Lines.dss
Redirect p4uhs10_1247/p4uhs10_1247--p4udt21933/Lines.dss
Redirect p4uhs10_1247/p4uhs10_1247--p4udt11491/Lines.dss
Redirect p4uhs11_1247/p4uhs11_1247--p4udt11208/Lines.dss
Redirect p4uhs11_1247/Lines.dss
Redirect p4uhs11_1247/p4uhs11_1247--p4udt10412/Lines.dss
Redirect p4uhs11_1247/p4uhs11_1247--p4udt9291/Lines.dss
Redirect p4uhs11_1247/p4uhs11_1247--p4udt20593/Lines.dss
Redirect p4uhs12_1247/Lines.dss
Redirect p4uhs12_1247/p4uhs12_1247--p4udt5377/Lines.dss
Redirect p4uhs12_1247/p4uhs12_1247--p4udt20601/Lines.dss
Redirect p4uhs12_1247/p4uhs12_1247--p4udt22081/Lines.dss
Redirect p4uhs2_1247/Lines.dss
Redirect p4uhs2_1247/p4uhs2_1247--p4udt19190/Lines.dss
Redirect p4uhs2_1247/p4uhs2_1247--p4udt15941/Lines.dss
Redirect p4uhs2_1247/p4uhs2_1247--p4udt19679/Lines.dss
Redirect p4uhs2_1247/p4uhs2_1247--p4udt22231/Lines.dss
Redirect p4uhs13_1247/p4uhs13_1247--p4udt23237/Lines.dss
Redirect p4uhs13_1247/Lines.dss
Redirect p4uhs13_1247/p4uhs13_1247--p4udt1395/Lines.dss
Redirect p4uhs14_1247/Lines.dss
Redirect p4uhs14_1247/p4uhs14_1247--p4udt9634/Lines.dss
Redirect p4uhs14_1247/p4uhs14_1247--p4udt19383/Lines.dss
Redirect p4uhs0_1247/Lines.dss
Redirect p4uhs0_1247/p4uhs0_1247--p4udt18706/Lines.dss
Redirect p4uhs0_1247/p4uhs0_1247--p4udt18708/Lines.dss
Redirect p4uhs0_1247/p4uhs0_1247--p4udt7051/Lines.dss
Redirect p4uhs0_1247/p4uhs0_1247--p4udt7046/Lines.dss
Redirect p4uhs0_1247/p4uhs0_1247--p4udt19058/Lines.dss
Redirect p4uhs15_1247/p4uhs15_1247--p4udt15003/Lines.dss
Redirect p4uhs15_1247/Lines.dss
Redirect p4uhs15_1247/p4uhs15_1247--p4udt20507/Lines.dss
Redirect p4uhs15_1247/p4uhs15_1247--p4udt11307/Lines.dss
Redirect p4uhs16_1247/Lines.dss
Redirect p4uhs16_1247/p4uhs16_1247--p4udt20685/Lines.dss
Redirect p4uhs16_1247/p4uhs16_1247--p4udt23451/Lines.dss
Redirect p4uhs16_1247/p4uhs16_1247--p4udt17342/Lines.dss
Redirect p4uhs16_1247/p4uhs16_1247--p4udt6223/Lines.dss
Redirect p4uhs16_1247/p4uhs16_1247--p4udt2769/Lines.dss
Redirect p4uhs17_1247/Lines.dss
Redirect p4uhs17_1247/p4uhs17_1247--p4udt3392/Lines.dss
Redirect p4uhs17_1247/p4uhs17_1247--p4udt7683/Lines.dss
Redirect p4uhs17_1247/p4uhs17_1247--p4udt13269/Lines.dss
Redirect p4uhs17_1247/p4uhs17_1247--p4udt4433/Lines.dss
Redirect p4uhs17_1247/p4uhs17_1247--p4udt17331/Lines.dss
Redirect p4uhs17_1247/p4uhs17_1247--p4udt13480/Lines.dss
Redirect p4uhs18_1247/p4uhs18_1247--p4udt2248/Lines.dss
Redirect p4uhs18_1247/Lines.dss
Redirect p4uhs18_1247/p4uhs18_1247--p4udt2247/Lines.dss
Redirect p4uhs18_1247/p4uhs18_1247--p4udt18560/Lines.dss
Redirect p4uhs19_1247/Lines.dss
Redirect p4uhs19_1247/p4uhs19_1247--p4udt4849/Lines.dss
Redirect p4uhs19_1247/p4uhs19_1247--p4udt21543/Lines.dss
Redirect p4uhs19_1247/p4uhs19_1247--p4udt10279/Lines.dss
Redirect p4uhs19_1247/p4uhs19_1247--p4udt22137/Lines.dss
Redirect p4uhs19_1247/p4uhs19_1247--p4udt18907/Lines.dss
Redirect p4uhs20_1247/Lines.dss
Redirect p4uhs20_1247/p4uhs20_1247--p4udt9759/Lines.dss
Redirect p4uhs20_1247/p4uhs20_1247--p4udt7428/Lines.dss
Redirect p4uhs20_1247/p4uhs20_1247--p4udt13530/Lines.dss
Redirect p4uhs20_1247/p4uhs20_1247--p4udt8037/Lines.dss
Redirect p4uhs20_1247/p4uhs20_1247--p4udt1954/Lines.dss
Redirect p4uhs20_1247/p4uhs20_1247--p4udt19742/Lines.dss
Redirect p4uhs1_1247/Lines.dss
Redirect p4uhs1_1247/p4uhs1_1247--p4udt18595/Lines.dss
Redirect p4uhs1_1247/p4uhs1_1247--p4udt5565/Lines.dss
Redirect p4uhs1_1247/p4uhs1_1247--p4udt22748/Lines.dss
Redirect p4uhs1_1247/p4uhs1_1247--p4udt18088/Lines.dss
Redirect subtransmission/Lines.dss
Redirect p4uhs0_1247/p4uhs0_1247--p4udt18706/Capacitors.dss
Redirect p4uhs0_1247/p4uhs0_1247--p4udt18708/Capacitors.dss
Redirect p4uhs0_1247/p4uhs0_1247--p4udt7051/Capacitors.dss
Redirect p4uhs0_1247/p4uhs0_1247--p4udt7046/Capacitors.dss
Redirect p4uhs0_1247/p4uhs0_1247--p4udt19058/Capacitors.dss
Redirect p4uhs1_1247/p4uhs1_1247--p4udt22748/Capacitors.dss
Redirect p4uhs1_1247/p4uhs1_1247--p4udt18088/Capacitors.dss
Redirect p4uhs2_1247/p4uhs2_1247--p4udt15941/Capacitors.dss
Redirect p4uhs2_1247/p4uhs2_1247--p4udt19679/Capacitors.dss
Redirect p4uhs2_1247/p4uhs2_1247--p4udt22231/Capacitors.dss
Redirect p4uhs3_1247/p4uhs3_1247--p4udt16430/Capacitors.dss
Redirect p4uhs3_1247/p4uhs3_1247--p4udt17537/Capacitors.dss
Redirect p4uhs3_1247/p4uhs3_1247--p4udt17903/Capacitors.dss
Redirect p4uhs3_1247/p4uhs3_1247--p4udt13996/Capacitors.dss
Redirect p4uhs3_1247/p4uhs3_1247--p4udt2390/Capacitors.dss
Redirect p4uhs4_1247/p4uhs4_1247--p4udt8999/Capacitors.dss
Redirect p4uhs4_1247/p4uhs4_1247--p4udt17398/Capacitors.dss
Redirect p4uhs4_1247/p4uhs4_1247--p4udt19484/Capacitors.dss
Redirect p4uhs4_1247/p4uhs4_1247--p4udt5981/Capacitors.dss
Redirect p4uhs5_1247/p4uhs5_1247--p4udt10630/Capacitors.dss
Redirect p4uhs5_1247/p4uhs5_1247--p4udt15124/Capacitors.dss
Redirect p4uhs5_1247/p4uhs5_1247--p4udt3570/Capacitors.dss
Redirect p4uhs5_1247/p4uhs5_1247--p4udt20411/Capacitors.dss
Redirect p4uhs6_1247/p4uhs6_1247--p4udt22626/Capacitors.dss
Redirect p4uhs6_1247/p4uhs6_1247--p4udt18805/Capacitors.dss
Redirect p4uhs6_1247/p4uhs6_1247--p4udt1281/Capacitors.dss
Redirect p4uhs7_1247/p4uhs7_1247--p4udt5694/Capacitors.dss
Redirect p4uhs7_1247/p4uhs7_1247--p4udt22221/Capacitors.dss
Redirect p4uhs7_1247/p4uhs7_1247--p4udt10974/Capacitors.dss
Redirect p4uhs7_1247/p4uhs7_1247--p4udt8751/Capacitors.dss
Redirect p4uhs8_1247/p4uhs8_1247--p4udt1728/Capacitors.dss
Redirect p4uhs8_1247/p4uhs8_1247--p4udt14683/Capacitors.dss
Redirect p4uhs9_1247/p4uhs9_1247--p4udt6157/Capacitors.dss
Redirect p4uhs9_1247/p4uhs9_1247--p4udt18371/Capacitors.dss
Redirect p4uhs9_1247/p4uhs9_1247--p4udt20209/Capacitors.dss
Redirect p4uhs9_1247/p4uhs9_1247--p4udt18569/Capacitors.dss
Redirect p4uhs10_1247/p4uhs10_1247--p4udt14276/Capacitors.dss
Redirect p4uhs10_1247/p4uhs10_1247--p4udt11491/Capacitors.dss
Redirect p4uhs10_1247/p4uhs10_1247--p4udt12947/Capacitors.dss
Redirect p4uhs10_1247/p4uhs10_1247--p4udt21933/Capacitors.dss
Redirect p4uhs11_1247/p4uhs11_1247--p4udt20593/Capacitors.dss
Redirect p4uhs11_1247/p4uhs11_1247--p4udt10412/Capacitors.dss
Redirect p4uhs11_1247/p4uhs11_1247--p4udt9291/Capacitors.dss
Redirect p4uhs12_1247/p4uhs12_1247--p4udt5377/Capacitors.dss
Redirect p4uhs12_1247/p4uhs12_1247--p4udt20601/Capacitors.dss
Redirect p4uhs12_1247/p4uhs12_1247--p4udt22081/Capacitors.dss
Redirect p4uhs13_1247/p4uhs13_1247--p4udt23237/Capacitors.dss
Redirect p4uhs13_1247/p4uhs13_1247--p4udt1395/Capacitors.dss
Redirect p4uhs14_1247/p4uhs14_1247--p4udt9634/Capacitors.dss
Redirect p4uhs15_1247/p4uhs15_1247--p4udt15003/Capacitors.dss
Redirect p4uhs15_1247/p4uhs15_1247--p4udt11307/Capacitors.dss
Redirect p4uhs16_1247/p4uhs16_1247--p4udt23451/Capacitors.dss
Redirect p4uhs16_1247/p4uhs16_1247--p4udt20685/Capacitors.dss
Redirect p4uhs16_1247/p4uhs16_1247--p4udt17342/Capacitors.dss
Redirect p4uhs16_1247/p4uhs16_1247--p4udt6223/Capacitors.dss
Redirect p4uhs17_1247/p4uhs17_1247--p4udt3392/Capacitors.dss
Redirect p4uhs17_1247/p4uhs17_1247--p4udt7683/Capacitors.dss
Redirect p4uhs17_1247/p4uhs17_1247--p4udt13269/Capacitors.dss
Redirect p4uhs17_1247/p4uhs17_1247--p4udt4433/Capacitors.dss
Redirect p4uhs17_1247/p4uhs17_1247--p4udt17331/Capacitors.dss
Redirect p4uhs17_1247/p4uhs17_1247--p4udt13480/Capacitors.dss
Redirect p4uhs18_1247/p4uhs18_1247--p4udt2248/Capacitors.dss
Redirect p4uhs18_1247/p4uhs18_1247--p4udt2247/Capacitors.dss
Redirect p4uhs18_1247/p4uhs18_1247--p4udt18560/Capacitors.dss
Redirect p4uhs19_1247/p4uhs19_1247--p4udt4849/Capacitors.dss
Redirect p4uhs19_1247/p4uhs19_1247--p4udt18907/Capacitors.dss
Redirect p4uhs19_1247/p4uhs19_1247--p4udt10279/Capacitors.dss
Redirect p4uhs19_1247/p4uhs19_1247--p4udt22137/Capacitors.dss
Redirect p4uhs20_1247/p4uhs20_1247--p4udt13530/Capacitors.dss
Redirect p4uhs20_1247/p4uhs20_1247--p4udt1954/Capacitors.dss
Redirect p4uhs20_1247/p4uhs20_1247--p4udt8037/Capacitors.dss

Set Voltagebases=[0.2080002494301389, 0.48, 7.199560000000001, 12.47, 69.0, 230.0]

Calcvoltagebases

Buscoords Buscoords.dss

Solve